#DualSPHysics CPU v4.2.038 (21-03-2018)
#Matthias (24/06/2019)

#=============== Compilation Options ===============
USE_DEBUG=NO
USE_FAST_MATH=YES
USE_NATIVE_CPU_OPTIMIZATIONS=NO


#=== Matthias 30/07 - Correct libs in gcc4 for gruffalo
LIBS_DIRECTORIES=-L./
LIBS_DIRECTORIES:=$(LIBS_DIRECTORIES) -L../lib/linux_gcc4

#EXECNAME=DualSPHysics4.2CPU_linux64
EXECNAME=RootSPH31_linux64_191205_BeemsterReady
EXECS_DIRECTORY=../../bin

ifeq ($(USE_DEBUG), YES)
  CCFLAGS=-c -O0 -g -Wall -fopenmp
else
  CCFLAGS=-c -O3 -fopenmp
  ifeq ($(USE_FAST_MATH), YES)
    CCFLAGS+= -ffast-math
  endif
  ifeq ($(USE_NATIVE_CPU_OPTIMIZATIONS), YES)
    CCFLAGS+= -march=native
  endif
endif
CC=g++
CCLINKFLAGS=-fopenmp -lgomp

#=== Matthias - Cxx11 flags
CCFLAGS+=-D_GLIBCXX_USE_CXX11_ABI=0
CCLINKFLAGS+=-D_GLIBCXX_USE_CXX11_ABI=0

#=== Matthias 30/05 - Path to eigen
#=== Matthias 30/07 - Update Path to Eigen in lib  
EIGEN = -I ../../../EigenLibs -I ../lib/EigenLibs

#=== Matthias - PIE compilation crash
#CCFLAGS+= -v -fPIC
#CCLINKFLAGS+= -v -fPIC

#=== Matthias - Undefined references
#CPPJXML = JXml.cpp JPartDataBi4.cpp

#=== Matthias - Linux compatibility of some function related to string
CCFLAGS += -std=c++11

#=============== Files to compile ===============
OBJXML=JXml.o tinystr.o tinyxml.o tinyxmlerror.o tinyxmlparser.o
OBJSPHMOTION=JMotion.o JMotionList.o JMotionMov.o JMotionObj.o JMotionPos.o JSphMotion.o
OBCOMMON=GenCaseBis_T.o Functions.o FunctionsMath.o JBinaryData.o JException.o JLog2.o JMeanValues.o JObject.o JRadixSort.o JRangeFilter.o JReadDatafile.o JSaveCsv2.o JTimeControl.o randomc.o
OBCOMMONDSPH=JDsphConfig.o JPartDataBi4.o JPartFloatBi4.o JPartOutBi4Save.o JSpaceCtes.o JSpaceEParms.o JSpaceParts.o JSpaceProperties.o
OBSPH=JArraysCpu.o JCellDivCpu.o JCfgRun.o JDamping.o JGaugeItem.o JGaugeSystem.o JPartsOut.o JSaveDt.o JSph.o JSphAccInput.o JSphSolidCpu_M.o JSphInitialize.o JSphMk.o JSphDtFixed.o JSphVisco.o JTimeOut.o JWaveSpectrumGpu.o main.o
OBSPHSINGLE=JCellDivCpuSingle.o JPartsLoad4.o JSphCpuSingle.o

OBJECTS=$(OBJXML) $(OBJSPHMOTION) $(OBCOMMON) $(OBCOMMONDSPH) $(OBSPH) $(OBSPHSINGLE)

#=============== DualSPHysics libs to be included ===============
JLIBS=${LIBS_DIRECTORIES} -ljformatfiles2_64 -ljwavegen_64

#=============== CPU Code Compilation ===============
all:$(EXECS_DIRECTORY)/$(EXECNAME)
	rm -rf *.o
ifeq ($(USE_DEBUG), NO)
	@echo "  --- Compiled Release CPU version ---"
else
	@echo "  --- Compiled Debug CPU version ---"
	mv $(EXECNAME) $(EXECNAME)_debug
endif

$(EXECS_DIRECTORY)/$(EXECNAME):  $(OBJECTS)
	$(CC) $(OBJECTS) $(CCLINKFLAGS) -o $@ $(JLIBS)

.cpp.o:
	$(CC) $(EIGEN) $(CCFLAGS) $<

clean:
	rm -rf *.o $(EXECNAME) $(EXECNAME)_debug
